iidm/iidm-modification/src/test/resources/eurostag-replace-tl.xml
<?xml version="1.0" encoding="UTF-8"?>
<iidm:network xmlns:iidm="http://www.powsybl.org/schema/iidm/1_18" id="sim1" caseDate="2013-01-15T18:45:00.000+01:00" forecastDistance="0" sourceFormat="test" minimumValidationLevel="STEADY_STATE_HYPOTHESIS">
    <iidm:substation id="P1" country="FR" tso="RTE" geographicalTags="A">
        <iidm:voltageLevel id="VLGEN" nominalV="24.0" topologyKind="BUS_BREAKER">
            <iidm:busBreakerTopology>
                <iidm:bus id="NGEN" v="24.500000610351563" angle="2.3259763717651367"/>
            </iidm:busBreakerTopology>
            <iidm:generator id="GEN" energySource="OTHER" minP="-9999.99" maxP="9999.99" targetP="607.0" localTargetV="24.5" localTargetQ="301.0" bus="NGEN" connectableBus="NGEN" p="-605.558349609375" q="-225.2825164794922">
                <iidm:minMaxReactiveLimits minQ="-9999.99" maxQ="9999.99"/>
                <iidm:voltageRegulation mode="VOLTAGE" regulating="true"/>
            </iidm:generator>
        </iidm:voltageLevel>
        <iidm:voltageLevel id="VLHV1" nominalV="380.0" topologyKind="BUS_BREAKER">
            <iidm:busBreakerTopology>
                <iidm:bus id="NHV1" v="402.1428451538086" angle="0.0"/>
            </iidm:busBreakerTopology>
        </iidm:voltageLevel>
        <iidm:twoWindingsTransformer id="NGEN_NHV1" r="0.26658461538461536" x="11.104492831516762" ratedU1="24.0" ratedU2="400.0" bus1="NGEN" connectableBus1="NGEN" voltageLevelId1="VLGEN" bus2="NHV1" connectableBus2="NHV1" voltageLevelId2="VLHV1" p1="605.558349609375" q1="225.2825164794922" p2="-604.8909301757812" q2="-197.48046875"/>
    </iidm:substation>
    <iidm:substation id="P2" country="FR" tso="RTE" geographicalTags="B">
        <iidm:voltageLevel id="VLHV2" nominalV="380.0" topologyKind="BUS_BREAKER">
            <iidm:busBreakerTopology>
                <iidm:bus id="NHV2" v="389.9526763916016" angle="-3.5063576698303223"/>
            </iidm:busBreakerTopology>
        </iidm:voltageLevel>
        <iidm:voltageLevel id="VLLOAD" nominalV="150.0" topologyKind="BUS_BREAKER">
            <iidm:busBreakerTopology>
                <iidm:bus id="NLOAD" v="147.57861328125" angle="-9.614486694335938"/>
            </iidm:busBreakerTopology>
            <iidm:load id="LOAD" loadType="UNDEFINED" p0="600.0" q0="200.0" bus="NLOAD" connectableBus="NLOAD" p="600.0" q="200.0"/>
        </iidm:voltageLevel>
        <iidm:twoWindingsTransformer id="NHV2_NLOAD" r="0.04724999999999999" x="4.049724365620455" ratedU1="400.0" ratedU2="158.0" bus1="NHV2" connectableBus1="NHV2" voltageLevelId1="VLHV2" bus2="NLOAD" connectableBus2="NLOAD" voltageLevelId2="VLLOAD" p1="600.8677978515625" q1="274.3769836425781" p2="-600.0" q2="-200.0">
            <iidm:ratioTapChanger tapPosition="1" loadTapChangingCapabilities="true">
                <iidm:step rho="0.8505666905244191"/>
                <iidm:step rho="1.0006666666666666"/>
                <iidm:step rho="1.150766642808914"/>
                <iidm:voltageRegulation mode="VOLTAGE" regulating="true" targetValue="158.0" targetDeadband="0.0">
                    <iidm:terminalRef id="NHV2_NLOAD" side="TWO"/>
                </iidm:voltageRegulation>
            </iidm:ratioTapChanger>
        </iidm:twoWindingsTransformer>
    </iidm:substation>
    <iidm:line id="NHV1_NHV2_1" r="2.999999999999999" x="33.0" g1="1.0000000000005664E-6" b1="1.930000000000022E-4" g2="2.000000000000699E-6" b2="1.9300000000000567E-4" bus1="NHV1" connectableBus1="NHV1" voltageLevelId1="VLHV1" bus2="NHV2" connectableBus2="NHV2" voltageLevelId2="VLHV2" p1="302.4440612792969" q1="98.74027252197266" p2="-300.43389892578125" q2="-137.18849182128906">
        <iidm:alias type="same_2">test4</iidm:alias>
        <iidm:alias type="same_1">test2</iidm:alias>
        <iidm:alias>test3</iidm:alias>
        <iidm:alias type="boundaryLine1Id">NHV1_XNODE1</iidm:alias>
        <iidm:alias type="boundaryLine2Id">XNODE1_NHV2</iidm:alias>
        <iidm:alias>test1</iidm:alias>
        <iidm:alias type="pairingKey">XNODE1</iidm:alias>
        <iidm:property name="key1" value="value1"/>
        <iidm:property name="key3" value="value4"/>
        <iidm:property name="key2_1" value="value2"/>
        <iidm:property name="key1_2" value="value1"/>
        <iidm:property name="key1_1" value="value1"/>
        <iidm:property name="key3_1" value="value4"/>
        <iidm:property name="key2_2" value="value3"/>
    </iidm:line>
    <iidm:line id="NHV1_NHV2_2" r="2.999999999999999" x="33.0" g1="1.0000000000005664E-6" b1="1.930000000000022E-4" g2="2.000000000000699E-6" b2="1.9300000000000567E-4" bus1="NHV1" connectableBus1="NHV1" voltageLevelId1="VLHV1" bus2="NHV2" connectableBus2="NHV2" voltageLevelId2="VLHV2" p1="302.4440612792969" q1="98.74027252197266" p2="-300.43389892578125" q2="-137.18849182128906">
        <iidm:alias type="pairingKey">XNODE2</iidm:alias>
        <iidm:alias type="boundaryLine1Id">NHV1_XNODE2</iidm:alias>
        <iidm:alias type="boundaryLine2Id">XNODE2_NHV2</iidm:alias>
    </iidm:line>
</iidm:network>
